19

N          1.14078       -0.05986        0.09015
C          2.42633        0.08898       -0.27392
N          3.27235       -1.06181       -0.17094
C          4.66167       -0.85714       -0.52092
C          5.02046       -0.75966       -1.89639
O          4.05340       -0.66545       -2.95505
C          5.20202        0.43231       -0.93905
C          4.35192        1.56381       -0.40477
C          2.89104        1.41832       -0.79546
O          2.76851        1.48132       -2.22446
H          1.03598       -0.98640        0.50124
H          2.81108       -1.79352       -0.70523
H          5.93213       -1.30550       -2.13812
H          3.14927       -0.66295       -2.56009
H          6.24014        0.74930       -0.98343
H          4.74743        2.52990       -0.72787
H          4.43814        1.55087        0.69557
H          2.30139        2.24738       -0.39351
H          3.59354        1.11311       -2.58395
